DSM_GameTheoryOptimizationandDeepLearning/Python_IEEE_15_Houses_distribution_system_V_288.glm
// This file has a model of the IEEE 13 node test feeder with houses attached

#set profiler=1
#set threadcount=1;
#set random_number_generator=RNG3
#set randomseed=42;
#set relax_naming_rules=1;

module tape;

module residential {
	implicit_enduses NONE;
};

//module generators;
module powerflow;

module climate;

class climate {
  double elevation[ft];
}

object climate {
	tmyfile "GLM_Files/InPut_for_glm/WA-Yakima_Air_Terminal.tmy3";
	object recorder {
	property temperature,humidity;
	interval 60;
	file "GLM_Files/OutPut_of_glm/IEEE_13_Climate.csv";
							};
}

class waterheater{
	loadshape myshape;
}

clock {
	timezone PST+8PDT;
	starttime '2000-01-01 00:00:00 PST';
	stoptime '2021-12-31 00:00:00 PST'; ////https://planetcalc.com/ext/?id=274 /// 92  day
}

class player {
	double value;
}

object player {
	name THeat_1;
	file "GLM_Files/InPut_for_glm/Heating_setpoints/House_1/heating_setpoint_House_1.player";
	loop 8034;
} 

object player {
	name TCool_1;
	file "GLM_Files/InPut_for_glm/Cooling_setpoints/House_1/cooling_setpoint_House_1.player";
	loop 8034;
} 

object player {
	name THeat_2;
	file "GLM_Files/InPut_for_glm/Heating_setpoints/House_2/heating_setpoint_House_2.player";
	loop 8034;
}    

object player {
	name TCool_2;
	file "GLM_Files/InPut_for_glm/Cooling_setpoints/House_2/cooling_setpoint_House_2.player";
	loop 8034;
} 

object player {
	name THeat_3;
	file "GLM_Files/InPut_for_glm/Heating_setpoints/House_3/heating_setpoint_House_3.player";
	loop 8034;
}   

object player {
	name TCool_3;
	file "GLM_Files/InPut_for_glm/Cooling_setpoints/House_3/cooling_setpoint_House_3.player";
	loop 8034;
} 

object player {
	name THeat_4;
	file "GLM_Files/InPut_for_glm/Heating_setpoints/House_4/heating_setpoint_House_4.player";
	loop 8034;
}   

object player {
	name TCool_4;
	file "GLM_Files/InPut_for_glm/Cooling_setpoints/House_4/cooling_setpoint_House_4.player";
	loop 8034;
} 

object player {
	name THeat_5;
	file "GLM_Files/InPut_for_glm/Heating_setpoints/House_5/heating_setpoint_House_5.player";
	loop 8034;
}   

object player {
	name TCool_5;
	file "GLM_Files/InPut_for_glm/Cooling_setpoints/House_5/cooling_setpoint_House_5.player";
	loop 8034;
} 
   
   object player {
	name THeat_6;
	file "GLM_Files/InPut_for_glm/Heating_setpoints/House_6/heating_setpoint_House_6.player";
	loop 8034;
}   

object player {
	name TCool_6;
	file "GLM_Files/InPut_for_glm/Cooling_setpoints/House_6/cooling_setpoint_House_6.player";
	loop 8034;
} 

object player {
	name THeat_7;
	file "GLM_Files/InPut_for_glm/Heating_setpoints/House_7/heating_setpoint_House_7.player";
	loop 8034;
}   

object player {
	name TCool_7;
	file "GLM_Files/InPut_for_glm/Cooling_setpoints/House_7/cooling_setpoint_House_7.player";
	loop 8034;
} 

object player {
	name THeat_8;
	file "GLM_Files/InPut_for_glm/Heating_setpoints/House_8/heating_setpoint_House_8.player";
	loop 8034;
}   

object player {
	name TCool_8;
	file "GLM_Files/InPut_for_glm/Cooling_setpoints/House_8/cooling_setpoint_House_8.player";
	loop 8034;
} 
   
object player {
	name THeat_9;
	file "GLM_Files/InPut_for_glm/Heating_setpoints/House_9/heating_setpoint_House_9.player";
	loop 8034;
}   

object player {
	name TCool_9;
	file "GLM_Files/InPut_for_glm/Cooling_setpoints/House_9/cooling_setpoint_House_9.player";
	loop 8034;
} 

object player {
	name TCool_10;
	file "GLM_Files/InPut_for_glm/Cooling_setpoints/House_10/cooling_setpoint_House_10.player";
	loop 8034;
} 
   object player {
	name THeat_10;
	file "GLM_Files/InPut_for_glm/Heating_setpoints/House_10/heating_setpoint_House_10.player";
	loop 8034;
} 

object player {
	name TCool_11;
	file "GLM_Files/InPut_for_glm/Cooling_setpoints/House_11/cooling_setpoint_House_11.player";
	loop 8034;
}   
   
   
 object player {
	name THeat_11;
	file "GLM_Files/InPut_for_glm/Heating_setpoints/House_11/heating_setpoint_House_11.player";
	loop 8034;
}   

object player {
	name TCool_12;
	file "GLM_Files/InPut_for_glm/Cooling_setpoints/House_12/cooling_setpoint_House_12.player";
	loop 8034;
} 

object player {
	name THeat_12;
	file "GLM_Files/InPut_for_glm/Heating_setpoints/House_12/heating_setpoint_House_12.player";
	loop 8034;
}   

object player {
	name TCool_13;
	file "GLM_Files/InPut_for_glm/Cooling_setpoints/House_13/cooling_setpoint_House_13.player";
	loop 8034;
} 
object player {
	name THeat_13;
	file "GLM_Files/InPut_for_glm/Heating_setpoints/House_13/heating_setpoint_House_13.player";
	loop 8034;
}   

object player {
	name THeat_14;
	file "GLM_Files/InPut_for_glm/Heating_setpoints/House_14/heating_setpoint_House_14.player";
	loop 8034;
}   
object player {
	name TCool_14;
	file "GLM_Files/InPut_for_glm/Cooling_setpoints/House_14/cooling_setpoint_House_14.player";
	loop 8034;
} 

object player {
	name THeat_15;
	file "GLM_Files/InPut_for_glm/Heating_setpoints/House_15/heating_setpoint_House_15.player";
	loop 8034;
}   
   
   object player {
	name TCool_15;
	file "GLM_Files/InPut_for_glm/Cooling_setpoints/House_15/cooling_setpoint_House_15.player";
	loop 8034;
} 

schedule waterdemand1 {
	* 0-5 * * * 0;
	0-16 6 * * * 0;
	17-34 6 * * * 0.2;
	35-59 6 * * * 0.4;
	0-11 7 * * * 0.3;
	12-59 7 * * * 0;
	* 8-16 * * * .05;
	* 17 * * * 0;
	0-15 18 * * * 0;
	16-59 18 * * * 0.8;
	* 19-21 * * * 0;
	00-45 22 * * * 0;
	46-59 22 * * * 0.6;
	* 23 * * * 0;
}

schedule waterdemand2 {
	* 0-4 * * * 0;
	0-10 5 * * * .4;
	11-37 5 * * * 0.1;
	38-59 5 * * * 0.6;
	0-16 6 * * * 0.4;
	17-59 6 * * * 0;
	* 7-16 * * * 0.01;
	0-12 17 * * * 0.5;
	13-59 17 * * * 0;
	* 18-23 * * * 0;
}

schedule waterdemand3 {
	* 0-6 * * * 0;
	0-16 7 * * * 0;
	17-34 7 * * * 0.4;
	35-59 7 * * * 0.8;
	0-11 8 * * * 0.1;
	12-59 8 * * * 0;
	* 9-15 * * * 0.005;
	* 16 * * * 0.1;
	* 17 * * * 0.2;
	0-27 18 * * * 0.7;
	28-59 18 * * * 0;
	* 19-23 * * * 0;
}


schedule ZIP1base_power {
	* 0-2 * * * 0.250;
 	* 3-5 * * * 0.500;
 	* 6-8 * * * 0.750;
 	* 9-17 * * * 0.500;
 	* 18-20 * * * 0.750;
	* 21-23	* * * 0.500;
}


// Build Triplex Line---------this is form "baresi ", power grid part
object triplex_line_conductor {
	name tp_line_conductor;
	resistance 0.97;
	geometric_mean_radius 0.0111;
};

// configuration Triplex Line------will be used in distribution
object triplex_line_configuration {
	name triplex_line_configuration_1;
	conductor_1 tp_line_conductor;
	conductor_2 tp_line_conductor;
	conductor_N tp_line_conductor;
	insulation_thickness 0.08;
	diameter 0.368;
}

// make details of lines

// Phase Conductor for 601: 556,500 26/7 ACSR-------Aluminium conductor steel-reinforced cable (ACSR)
// Ampacity 730 A (max current)
object overhead_line_conductor:6010 {
	geometric_mean_radius 0.031300;
	resistance 0.185900;
}

// Phase Conductor for 602: 4/0 6/1 ACSR
// Ampacity 340 A (max current)
object overhead_line_conductor:6020 {
	geometric_mean_radius 0.00814;
	resistance 0.592022;
}

// Phase Conductor for 603, 604, 605: 1/0 ACSR
// Ampacity 230 A (max current)
object overhead_line_conductor:6030 {
	geometric_mean_radius 0.004460;
	resistance 1.120220;
}

// Phase Conductor for 606: 250,000 AA,CN
object underground_line_conductor:6060 { 
	outer_diameter 1.290000;
	conductor_gmr 0.017100;
	conductor_diameter 0.567000;
	conductor_resistance 0.410000;
	neutral_gmr 0.0020800; 
	neutral_resistance 14.87200;  
	neutral_diameter 0.0640837;
	neutral_strands 13.000000;
	shield_gmr 0.000000;
	shield_resistance 0.000000;
}

// Phase Conductor for 607: 1/0 AA,TS N: 1/0 Cu
object underground_line_conductor:6070 { 
	outer_diameter 1.060000;
	conductor_gmr 0.011100;
	conductor_diameter 0.368000;
	conductor_resistance 0.970000;
	neutral_gmr 0.011100;
	neutral_resistance 0.970000; 
	neutral_diameter 0.0640837;
	neutral_strands 6.000000;
	shield_gmr 0.000000;
	shield_resistance 0.000000;
}

// Overhead line configurations
object line_spacing:500601 {
	distance_AB 2.5;
	distance_AC 4.5;
	distance_BC 7.0;
	distance_BN 5.656854;
	distance_AN 4.272002;
	distance_CN 5.0;
}

// Overhead line configurations
object line_spacing:500602 {
	distance_AC 2.5;
	distance_AB 4.5;
	distance_BC 7.0;
	distance_CN 5.656854;
	distance_AN 4.272002;
	distance_BN 5.0;
}

object line_spacing:505603 {
	distance_AC 0.0;
	distance_AB 0.0;
	distance_BC 7.0;
	distance_AN 0.0;
	distance_CN 5.656854;
	distance_BN 5.0;
}

object line_spacing:505604 {
	distance_AC 7.0;
	distance_AB 0.0;
	distance_BC 0.0;
	distance_AN 5.656854;
	distance_CN 5.0;
	distance_BN 0.0;
}

object line_spacing:510 {
	distance_AC 0.0;
	distance_AB 0.0;
	distance_BC 0.0;
	distance_AN 0.0;
	distance_CN 5.0;
	distance_BN 0.0;
	}


//// making 3 phase line  using
object line_configuration:601 {
	conductor_A overhead_line_conductor:6010;
	conductor_B overhead_line_conductor:6010;
	conductor_C overhead_line_conductor:6010;
	conductor_N overhead_line_conductor:6020;
	spacing line_spacing:500601;
}

object line_configuration:602 {
	conductor_A overhead_line_conductor:6020;
	conductor_B overhead_line_conductor:6020;
	conductor_C overhead_line_conductor:6020;
	conductor_N overhead_line_conductor:6020;
	spacing line_spacing:500602;
}

//// making 2 phase line 

object line_configuration:603 {
	conductor_B overhead_line_conductor:6030;
	conductor_C overhead_line_conductor:6030;
	conductor_N overhead_line_conductor:6030;
	spacing line_spacing:505603;
}

object line_configuration:604 {
	conductor_A overhead_line_conductor:6030;
	conductor_C overhead_line_conductor:6030;
	conductor_N overhead_line_conductor:6030;
	spacing line_spacing:505604;
}

//// making 1 phase line 

object line_configuration:605 {
	conductor_C overhead_line_conductor:6030;
	conductor_N overhead_line_conductor:6030;
	spacing line_spacing:510;
}

// Underground line configuration
object line_spacing:515 {
	distance_AB 0.500000;
	distance_BC 0.500000;
	distance_AC 1.000000;
	distance_AN 0.000000;
	distance_BN 0.000000;
	distance_CN 0.000000;
}

object line_spacing:520 {
	distance_AB 0.000000;
	distance_BC 0.000000;
	distance_AC 0.000000;
	distance_AN 0.083333;
	distance_BN 0.000000;
	distance_CN 0.000000;
}

object line_configuration:606 {
	conductor_A underground_line_conductor:6060;
	conductor_B underground_line_conductor:6060;
	conductor_C underground_line_conductor:6060;
	spacing line_spacing:515;
}

object line_configuration:607 {
	conductor_A underground_line_conductor:6070;
	conductor_N underground_line_conductor:6070;
	spacing line_spacing:520;
}


// start making IEEE 13 nodes
// Define line objects
object overhead_line:632645 {
	phases "BCN";
	name 632-645;
	from node:632;
	to node:645;
	length 500;
	configuration line_configuration:603;
}

object overhead_line:645646 {
	phases "BCN";
	name 645-646;
	from node:645;
	to node:646;
	length 300;
	configuration line_configuration:603;
}


///////// 630 is after regulator on 650
object overhead_line:630632 {
	phases "ABCN";
	name 630-632;
	from node:630;
	to node:632;
	length 2022;
	configuration line_configuration:601; // black line // Ampacity 730 A (max current), BAC N 
}

// Split line for distributed load

object overhead_line:6326321 {
	phases "ABCN";
	name 632-6321;
	from node:632;
	to node:6321;
	length 500; // devide
	configuration line_configuration:601;// Ampacity 730 A (max current), BAC N 
}

object overhead_line:6321671 {
	phases "ABCN";
	name 6321-671;
	from node:6321;
	to node:671;
	length 1500;
	configuration line_configuration:601;// Ampacity 730 A (max current), BAC N 
}

// End split line




object overhead_line:671680 {
	phases "ABCN";
	name 671-680;
	from node:671;
	to node:680;
	length 1000;
	configuration line_configuration:601;
}

object overhead_line:671684 {
	phases "ACN";
	name 671-684;
	from node:671;
	to node:684;
	length 300;
	configuration line_configuration:604;
}

object overhead_line:684611 {
	phases "CN";
	name 684-611;
	from node:684;
	to node:611;
	length 300;
	configuration line_configuration:605;
}

object underground_line:684652 {
	phases "AN";
	name 684-652;
	from node:684;
	to node:652;
	length 800;
	configuration line_configuration:607;
}

object underground_line:692675 {
	phases "ABC";
	name 692-675;
	from node:692;
	to node:675;
	length 500;
	configuration line_configuration:606;
}

object overhead_line:632633 {
	phases "ABCN";
	name 632-633;
	from node:632;
	to node:633;
	length 500;
	configuration line_configuration:602;
}

// Create node objects
object node:633 {
	name 633;
	phases "ABCN";
	voltage_A 2401.7771;
	voltage_B -1200.8886-2080.000j;
	voltage_C -1200.8886+2080.000j;
	nominal_voltage 2401.7771;
}

object node:630 {
	name 630;
	phases "ABCN";
	voltage_A 2401.7771+0j;
	voltage_B -1200.8886-2080.000j;
	voltage_C -1200.8886+2080.000j;
	nominal_voltage 2401.7771;
}
 
object node:632 {
	name 632;
	phases "ABCN";
	voltage_A 2401.7771;
	voltage_B -1200.8886-2080.000j;
	voltage_C -1200.8886+2080.000j;
	nominal_voltage 2401.7771;
}

object node:650 {
	name 650;
	phases "ABCN";
	bustype SWING;///////////////////////// grid
	voltage_A 2401.7771;
	voltage_B -1200.8886-2080.000j;
	voltage_C -1200.8886+2080.000j;
	nominal_voltage 2401.7771;
} 
 
object node:671 {
	name 671;
	phases "ABCN";
	voltage_A 2401.7771;
	voltage_B -1200.8886-2080.000j;
	voltage_C -1200.8886+2080.000j;
	nominal_voltage 2401.7771;
}

object node:680 {
	name 680;
	phases "ABCN";
	voltage_A 2401.7771;
	voltage_B -1200.8886-2080.000j;
	voltage_C -1200.8886+2080.000j;
	nominal_voltage 2401.7771;
}
 
 
object node:684 {
	name 684;
	phases "ACN";
	voltage_A 2401.7771;
	voltage_B -1200.8886-2080.000j;
	voltage_C -1200.8886+2080.000j;
	nominal_voltage 2401.7771;
} 
 
// distributed load between node 632 and 671
// 2/3 of load 1/4 of length down line: Kersting p.56
object node:6711 {
	name 6711;
	parent 611;
	phases "CN";
	voltage_C -1200.8886+2080.000j;
	nominal_voltage 2401.7771; 
}
 
object node:6321 {
	name 6321;
	phases "ABCN";
	voltage_A 2401.7771;
	voltage_B -1200.8886-2080.000j;
	voltage_C -1200.8886+2080.000j;
	nominal_voltage 2401.7771;    
}
 
// Create node objects with attached loads 
object node:611 {
	name 611;
	phases "CN";
	voltage_C -1200.8886+2080.000j;
	nominal_voltage 2401.7771;
}

object node:634 {
	name 634;
	phases "ABCN";
	voltage_A 480.000+0j;
	voltage_B -240.000-415.6922j;
	voltage_C -240.000+415.6922j;
	nominal_voltage 480.000;                          
}

object node:645 {
	name 645;
	phases "BCN";
	voltage_A 2401.7771;
	voltage_B -1200.8886-2080.000j;
	voltage_C -1200.8886+2080.000j;
	nominal_voltage 2401.7771;            
}

object node:646 {
	name 646;
	phases "BCN";
	voltage_A 2401.7771;
	voltage_B -1200.8886-2080.000j;
	voltage_C -1200.8886+2080.000j;
	nominal_voltage 2401.7771; 
}

object node:652 {
	name 652;
	phases "AN";
	voltage_A 2401.7771;
	voltage_B -1200.8886-2080.000j;
	voltage_C -1200.8886+2080.000j;
	nominal_voltage 2401.7771;      
}

object node:675 {
	name 675;
	phases "ABCN";
	voltage_A 2401.7771;
	voltage_B -1200.8886-2080.000j;
	voltage_C -1200.8886+2080.000j;
	nominal_voltage 2401.7771;
}

object node:692 {
	name 692;
	phases "ABCN";
	voltage_A 2401.7771;
	voltage_B -1200.8886-2080.000j;
	voltage_C -1200.8886+2080.000j;
	nominal_voltage 2401.7771;
}

object transformer {
	name center_tap_1; 
	phases CS; 
	from node:611; 
	to trip_node1; 
	configuration CS_config;
}

object transformer {
	name center_tap_2; 
	phases AS; 
	from node:634; 
	to trip_node2; 
	configuration AS_config;
}

object transformer {
	name center_tap_3; 
	phases BS; 
	from node:634; 
	to trip_node3; 
	configuration BS_config;
}

object transformer {
	name center_tap_4; 
	phases CS; 
	from node:634; 
	to trip_node4; 
	configuration CS_config;
}

object transformer {
	name center_tap_5; 
	phases BS; 
	from node:645; 
	to trip_node5; 
	configuration BS_config;
}

object transformer {
	name center_tap_6; 
	phases CS; 
	from node:645; 
	to trip_node6; 
	configuration CS_config;
}

object transformer {
	name center_tap_7; 
	phases BS; 
	from node:646; 
	to trip_node7; 
	configuration BS_config;
}

object transformer {
	name center_tap_8; 
	phases CS; 
	from node:646; 
	to trip_node8; 
	configuration CS_config;
}

object transformer {
	name center_tap_9; 
	phases AS; 
	from node:652; 
	to trip_node9; 
	configuration AS_config;
}

object transformer {
	name center_tap_10; 
	phases AS; 
	from node:675; 
	to trip_node10; 
	configuration AS_config;
}

object transformer {
	name center_tap_11; 
	phases BS; 
	from node:675; 
	to trip_node11; 
	configuration BS_config;
}

object transformer {
	name center_tap_12; 
	phases CS; 
	from node:675; 
	to trip_node12; 
	configuration CS_config;
}

object transformer {
	name center_tap_13; 
	phases AS; 
	from node:692; 
	to trip_node13; 
	configuration AS_config;
}

object transformer {
	name center_tap_14; 
	phases BS; 
	from node:692; 
	to trip_node14; 
	configuration BS_config;
}

object transformer {
	name center_tap_15; 
	phases CS; 
	from node:692; 
	to trip_node15; 
	configuration CS_config;
}

/////////////  for each line in distribution
object triplex_node {
	name trip_node1; 
	phases CS; 
	nominal_voltage 120;        
}

object triplex_node {
	name trip_node2; 
	phases AS; 
	nominal_voltage 120;
}

object triplex_node {
	name trip_node3; 
	phases BS; 
	nominal_voltage 120;
}

object triplex_node {
	name trip_node4; 
	phases CS; 
	nominal_voltage 120;
}

object triplex_node {
	name trip_node5; 
	phases BS; 
	nominal_voltage 120;
}

object triplex_node {
	name trip_node6; 
	phases CS; 
	nominal_voltage 120;
}

object triplex_node {
	name trip_node7; 
	phases BS; 
	nominal_voltage 120;
}

object triplex_node {
	name trip_node8; 
	phases CS; 
	nominal_voltage 120;
}

object triplex_node {
	name trip_node9; 
	phases AS; 
	nominal_voltage 120;
}

object triplex_node {
	name trip_node10; 
	phases AS; 
	nominal_voltage 120;
}

object triplex_node {
	name trip_node11; 
	phases BS; 
	nominal_voltage 120;
}

object triplex_node {
	name trip_node12; 
	phases CS; 
	nominal_voltage 120;
}

object triplex_node {
	name trip_node13; 
	phases AS; 
	nominal_voltage 120;
}

object triplex_node {
	name trip_node14; 
	phases BS; 
	nominal_voltage 120;
}

object triplex_node {
	name trip_node15; 
	phases CS; 
	nominal_voltage 120;
}

///////////// triplex_line  for each line in distribution--------from trip_node1    	to trip_meter1; 

object triplex_line {
	name trip_line1; 
	phases CS; 
	from trip_node1; 
	to trip_meter1; 
	length 0; 
	configuration triplex_line_configuration_1; /////// deine in first line
}

object triplex_line {
	name trip_line2; 
	phases AS; 
	from trip_node2; 
	to trip_meter2; 
	length 0; 
	configuration triplex_line_configuration_1;
}

object triplex_line {
	name trip_line3; 
	phases BS; 
	from trip_node3; 
	to trip_meter3; 
	length 0; 
	configuration triplex_line_configuration_1;
}

object triplex_line {
	name trip_line4; 
	phases CS; 
	from trip_node4; 
	to trip_meter4; 
	length 0; 
	configuration triplex_line_configuration_1;
}

object triplex_line {
	name trip_line5; 
	phases BS; 
	from trip_node5; 
	to trip_meter5; 
	length 0; 
	configuration triplex_line_configuration_1;
}

object triplex_line {
	name trip_line6; 
	phases CS; 
	from trip_node6; 
	to trip_meter6; 
	length 0; 
	configuration triplex_line_configuration_1;
}

object triplex_line {
	name trip_line7; 
	phases BS; 
	from trip_node7; 
	to trip_meter7; 
	length 0; 
	configuration triplex_line_configuration_1;
}

object triplex_line {
	name trip_line8; 
	phases CS; 
	from trip_node8; 
	to trip_meter8; 
	length 0; 
	configuration triplex_line_configuration_1;
}

object triplex_line {
	name trip_line9; 
	phases AS; 
	from trip_node9; 
	to trip_meter9; 
	length 0; 
	configuration triplex_line_configuration_1;
}

object triplex_line {
	name trip_line10; 
	phases AS; 
	from trip_node10; 
	to trip_meter10; 
	length 0; 
	configuration triplex_line_configuration_1;
}

object triplex_line {
	name trip_line11; 
	phases BS; 
	from trip_node11; 
	to trip_meter11; 
	length 0; 
	configuration triplex_line_configuration_1;
}

object triplex_line {
	name trip_line12; 
	phases CS; 
	from trip_node12; 
	to trip_meter12; 
	length 0; 
	configuration triplex_line_configuration_1;
}

object triplex_line {
	name trip_line13; 
	phases AS; 
	from trip_node13; 
	to trip_meter13; 
	length 0; 
	configuration triplex_line_configuration_1;
}

object triplex_line {
	name trip_line14; 
	phases BS; 
	from trip_node14; 
	to trip_meter14; 
	length 0; 
	configuration triplex_line_configuration_1;
}

object triplex_line {
	name trip_line15; 
	phases CS; 
	from trip_node15; 
	to trip_meter15; 
	length 0; 
	configuration triplex_line_configuration_1;
}

// House 1 meter/////////// contor
object triplex_meter {
	name trip_meter1; 
	phases CS; 
	nominal_voltage 120;
	object multi_recorder {
	property  measured_real_energy,measured_reactive_energy,measured_real_power,measured_reactive_power;
	file "GLM_Files/OutPut_of_glm/TriplexMeterS/IEEE13_triplex_meter_House_1.csv";
  					interval 60;
										};
}

// House 2 meter 
object triplex_meter {
	name trip_meter2; 
	phases AS; 
	nominal_voltage 120;
	object multi_recorder {
	property  measured_real_energy,measured_reactive_energy,measured_real_power,measured_reactive_power;
	file "GLM_Files/OutPut_of_glm/TriplexMeterS/IEEE13_triplex_meter_House_2.csv";
    interval 60; 
										};
}

// House 3 meter
object triplex_meter {
	name trip_meter3; 
	phases BS; 
	nominal_voltage 120;
	object multi_recorder {
	property  measured_real_energy,measured_reactive_energy,measured_real_power,measured_reactive_power;
	file "GLM_Files/OutPut_of_glm/TriplexMeterS/IEEE13_triplex_meter_House_3.csv";
    interval 60; 
										};
}

// House 4 meter
object triplex_meter {
	name trip_meter4; 
	phases CS; 
	nominal_voltage 120;
	object multi_recorder {
	property  measured_real_energy,measured_reactive_energy,measured_real_power,measured_reactive_power;
	file "GLM_Files/OutPut_of_glm/TriplexMeterS/IEEE13_triplex_meter_House_4.csv";
    interval 60; 
										};
}

// House 5 meter
object triplex_meter {
	name trip_meter5; 
	phases BS; 
	nominal_voltage 120;
	object multi_recorder {
	property  measured_real_energy,measured_reactive_energy,measured_real_power,measured_reactive_power;
	file "GLM_Files/OutPut_of_glm/TriplexMeterS/IEEE13_triplex_meter_House_5.csv";
    interval 60; 
										};
}

// House 6 meter
object triplex_meter {
	name trip_meter6; 
	phases CS; 
	nominal_voltage 120;
	object multi_recorder {
	property  measured_real_energy,measured_reactive_energy,measured_real_power,measured_reactive_power;
	file "GLM_Files/OutPut_of_glm/TriplexMeterS/IEEE13_triplex_meter_House_6.csv";
    interval 60; 
										};
}

// House 7 meter
object triplex_meter {
	name trip_meter7; 
	phases BS; 
	nominal_voltage 120;
	object multi_recorder {
	property  measured_real_energy,measured_reactive_energy,measured_real_power,measured_reactive_power;
	file "GLM_Files/OutPut_of_glm/TriplexMeterS/IEEE13_triplex_meter_House_7.csv";
    interval 60; 
										};
}

// House 8 meter
object triplex_meter {
	name trip_meter8; 
	phases CS; 
	nominal_voltage 120;
	object multi_recorder {
	property  measured_real_energy,measured_reactive_energy,measured_real_power,measured_reactive_power;
	file "GLM_Files/OutPut_of_glm/TriplexMeterS/IEEE13_triplex_meter_House_8.csv";
    interval 60; 
										};
}

// House 9 meter
object triplex_meter {
	name trip_meter9; 
	phases AS; 
	nominal_voltage 120;
	object multi_recorder {
	property  measured_real_energy,measured_reactive_energy,measured_real_power,measured_reactive_power;
	file "GLM_Files/OutPut_of_glm/TriplexMeterS/IEEE13_triplex_meter_House_9.csv";
    interval 60; 
										};
}

// House 10 meter
object triplex_meter {
	name trip_meter10; 
	phases AS; 
	nominal_voltage 120;
	object multi_recorder {
	property  measured_real_energy,measured_reactive_energy,measured_real_power,measured_reactive_power;
	file "GLM_Files/OutPut_of_glm/TriplexMeterS/IEEE13_triplex_meter_House_10.csv";
    interval 60; 
										};
}

// House 11 meter
object triplex_meter {
	name trip_meter11; 
	phases BS; 
	nominal_voltage 120;
	object multi_recorder {
	property  measured_real_energy,measured_reactive_energy,measured_real_power,measured_reactive_power;
	file "GLM_Files/OutPut_of_glm/TriplexMeterS/IEEE13_triplex_meter_House_11.csv";
    interval 60; 
										};
}

// House 12 meter
object triplex_meter {
	name trip_meter12; 
	phases CS; 
	nominal_voltage 120;
	object multi_recorder {
	property  measured_real_energy,measured_reactive_energy,measured_real_power,measured_reactive_power;
	file "GLM_Files/OutPut_of_glm/TriplexMeterS/IEEE13_triplex_meter_House_12.csv";
    interval 60; 
										};
}

// House 13 meter
object triplex_meter {
	name trip_meter13; 
	phases AS; 
	nominal_voltage 120;
	object multi_recorder {
	property  measured_real_energy,measured_reactive_energy,measured_real_power,measured_reactive_power;
	file "GLM_Files/OutPut_of_glm/TriplexMeterS/IEEE13_triplex_meter_House_13.csv";
    interval 60; 
										};
}

// House 14 meter
object triplex_meter {
	name trip_meter14; 
	phases BS; 
	nominal_voltage 120;
	object multi_recorder {
	property  measured_real_energy,measured_reactive_energy,measured_real_power,measured_reactive_power;
	file "GLM_Files/OutPut_of_glm/TriplexMeterS/IEEE13_triplex_meter_House_14.csv";
    interval 60; 
										};
}

// House 15 meter 
object triplex_meter {
	name trip_meter15; 
	phases CS; 
	nominal_voltage 120;
	object multi_recorder {
	property  measured_real_energy,measured_reactive_energy,measured_real_power,measured_reactive_power;
	file "GLM_Files/OutPut_of_glm/TriplexMeterS/IEEE13_triplex_meter_House_15.csv";
    interval 60; 
										};
}
 
// Switch
object switch:671692 {
	phases "ABCN";
	name 671-692;
	from node:671;
	to node:692;
	status CLOSED;
}
 
// Build Transformer 3 phases

object transformer_configuration:400 {
	connect_type WYE_WYE;
  	install_type PADMOUNT;
  	power_rating 500;
  	primary_voltage 4160;
  	secondary_voltage 480;
  	resistance 0.011;
  	reactance 0.02;
}
  // use Transformer
object transformer:633634 {
  	phases "ABCN";
  	name 633-634;
  	from node:633;
  	to node:634;
  	configuration transformer_configuration:400;
}

// Build Transformer for only one phase
object transformer_configuration {
	name AS_config;
	connect_type SINGLE_PHASE_CENTER_TAPPED;
	install_type POLETOP;
	powerA_rating 75;
	primary_voltage 2401;
	secondary_voltage 120.000;
	impedance 0.006+0.0136j;
}

object transformer_configuration {
	name BS_config;
	connect_type SINGLE_PHASE_CENTER_TAPPED;
	install_type POLETOP;
	powerB_rating 75;
	primary_voltage 2401;
	secondary_voltage 120.000;
	impedance 0.006+0.0136j;
}

object transformer_configuration {
	name CS_config;
	connect_type SINGLE_PHASE_CENTER_TAPPED;
	install_type POLETOP;
	powerC_rating 75;
	primary_voltage 2401;
	secondary_voltage 120.000;
	impedance 0.006+0.0136j;
}

// Build capacitor for bus 675
object capacitor {
	phases ABCN;
	name CAP1;
	pt_phase ABCN;
	parent 675;
	phases_connected ABCN;
	control VOLT;
	voltage_set_high 2500.0;
	voltage_set_low 1950.0;
	capacitor_A 0.300 MVAr;
	capacitor_B 0.300 MVAr;
	capacitor_C 0.300 MVAr;
	control_level INDIVIDUAL;
	time_delay 0.0;	
	dwell_time 0.0;
	switchA CLOSED;				// manual controls for load manipulation (don't use the switch player)
	switchB CLOSED;
	switchC CLOSED;
	nominal_voltage 2401.7771;	
}

object capacitor {
	phases ABCN;
	name CAP2;
	pt_phase ABCN;
	parent 675;
	phases_connected ABCN;
	control VOLT;
	voltage_set_high 2600.0;
	voltage_set_low 2050.0;
	capacitor_A 0.250 MVAr;
    capacitor_B 0.250 MVAr;
	capacitor_C 0.250 MVAr;
	control_level INDIVIDUAL;
	time_delay 300.0;	
	dwell_time 0.0;
	switchA CLOSED;				// manual controls for load manipulation (don't use the switch player)
	switchB CLOSED;
	switchC CLOSED;
	nominal_voltage 2401.7771;
}
  
// Build  Regulator
object regulator_configuration:6506321 {
	connect_type WYE_WYE;
	band_center 2022.000;
	band_width 80.0;
	time_delay 0.0;
	dwell_time 0.0;
	raise_taps 16;
	lower_taps 16;
	regulation 0.10;
	Control REMOTE_NODE;
	tap_pos_A 9;
	tap_pos_B 7;
	tap_pos_C 10;
}
 
 // use  Regulator
object regulator:650630 {
	phases "ABCN";
	from node:650;
	to node:630;
	sense_node 671;
	configuration regulator_configuration:6506321;
}

// House 1
object house {
	name house1;
	parent trip_meter1;
		///describe home
		/// physical disgn
	floor_area 1500;
//		number_of_doors random.normal(3,1);
//		number_of_stories random.normal(2,1);/// number of floors
		window_wall_ratio  random.normal(0.07,0.01);
		
	// we did not consider HVAC desing, only we make a ideal case for HVAC
		///		heating_cop_curve DEFAULT;/// make heating_COP as a function
		///		cooling_cop_curve LINEAR;
		power_factor 1.0;  
		power_fraction 1.0;
		current_fraction 0.0;
		impedance_fraction 0.0;
		///	Thermostat design
		/// thermostat_deadband random.normal (2,1); 	/// thermostat_deadband  2; //default and determine defult for --->aux_heat_deadband 2;

		
			/// enumerations             ---------->>>>       in hand  of home onwers
	
	///1. HVAC Configurations 
	///	system_type AIRCONDITIONING; Describe HVAC system, instead of defind indiviualy
		auxiliary_strategy DEADBAND;/////	 system_mode OFF is one of them
		auxiliary_system_type ELECTRIC;
		heating_system_type HEAT_PUMP;
		cooling_system_type HEAT_PUMP;//HEAT_PUMP did not defind according to some part of their website
		fan_type ONE_SPEED;
	///	motor_efficiency VERY_GOOD;
		heating_COP 1;
		cooling_COP 1;//very important
	///	more seting than system_type, these are manufactoring and are not in hand of home owners
			
	///2.	Thermostat Configurations
		
		cooling_setpoint TCool_1.value;
		heating_setpoint THeat_1.value;

		///3. home Configurations
	///	thermal_integrity_level VERY_GOOD;
	///	glass_type LOW_E_GLASS;
	///	window_frame INSULATED;
	///	glazing_treatment HIGH_S;
	///	glazing_layers THREE;

object recorder {
		/// enegy of house show only HVAC enery in gridlab D
		/// enery is comultive
		property  hvac_load,energy,heating_setpoint,cooling_setpoint,mass_temperature, air_temperature,outdoor_temperature,system_mode,thermostat_deadband,aux_heat_deadband,floor_area,number_of_doors,number_of_stories,window_wall_ratio, heating_COP, cooling_COP,aux_heat_temperature_lockout;
		file "GLM_Files/OutPut_of_glm/HVACs/IEEE13_HVAC_House_1.csv";
								interval 60;
							}; 	
	////////////////// finish HVAC
	object waterheater {
		location INSIDE;
				water_demand waterdemand1*random.normal(1,.2);
				object multi_recorder {
            property energy;
            file "GLM_Files/OutPut_of_glm/WaterHeaterS/IEEE13_waterheater_House_1.csv";
            interval 60;
                    };
				power_factor 1.0;
				power_fraction 1.0;
				current_fraction 0.0;
				impedance_fraction 0.0;
										};
										
	object ZIPload {
		base_power ZIP1base_power*random.normal(1,.25);	
				object multi_recorder {
            property energy;
            file "GLM_Files/OutPut_of_glm/ZIPs/IEEE13_ZIP_House_1.csv";
            interval 60;
                    };		
		power_factor 1.0;
		power_fraction 1.0;
		current_fraction 0.0;
		impedance_fraction 0.0;
							};
}



// House 2 
object house {
	name house2;
	parent trip_meter2;
		floor_area 350;
	//	number_of_doors random.normal(3,1);
	//	number_of_stories random.normal(2,1);/// number of floors
		window_wall_ratio  random.normal(0.07,0.01);
		
	// we did not consider HVAC desing, only we make a ideal case for HVAC
		///		heating_cop_curve DEFAULT;/// make heating_COP as a function
		///		cooling_cop_curve LINEAR;
		power_factor 1.0;  
		power_fraction 1.0;
		current_fraction 0.0;
		impedance_fraction 0.0;
		///	Thermostat design
		/// thermostat_deadband random.normal (2,1); 	/// thermostat_deadband  2; //default and determine defult for --->aux_heat_deadband 2;


		
			/// enumerations             ---------->>>>       in hand  of home onwers
	
	///1. HVAC Configurations 
	///	system_type AIRCONDITIONING; Describe HVAC system, instead of defind indiviualy
		auxiliary_strategy DEADBAND;/////	 system_mode OFF is one of them
		auxiliary_system_type ELECTRIC;
		heating_system_type HEAT_PUMP;
		cooling_system_type HEAT_PUMP;//HEAT_PUMP did not defind according to some part of their website
		fan_type ONE_SPEED;
	///	motor_efficiency VERY_GOOD;
		heating_COP 2;
		cooling_COP 2;//very important
	///	more seting than system_type, these are manufactoring and are not in hand of home owners
			
	///2.	Thermostat Configurations
		
		cooling_setpoint TCool_2.value;
		heating_setpoint THeat_2.value;

		///3. home Configurations
	///	thermal_integrity_level VERY_GOOD;
	///	glass_type LOW_E_GLASS;
	///	window_frame INSULATED;
	///	glazing_treatment HIGH_S;
	///	glazing_layers THREE;

object recorder {
		/// enegy of house show only HVAC enery in gridlab D
		/// enery is comultive
		property  hvac_load,energy,heating_setpoint,cooling_setpoint,mass_temperature, air_temperature,outdoor_temperature,system_mode,thermostat_deadband,aux_heat_deadband,floor_area,number_of_doors,number_of_stories,window_wall_ratio, heating_COP, cooling_COP,aux_heat_temperature_lockout;
		file "GLM_Files/OutPut_of_glm/HVACs/IEEE13_HVAC_House_2.csv";
		      //IEEE13_House_2_HVAC 
			interval 60;
							}; 

	object waterheater {
		location INSIDE;
				water_demand waterdemand3*random.normal(1,.2);
		object multi_recorder {
            property energy;
            file "GLM_Files/OutPut_of_glm/WaterHeaterS/IEEE13_waterheater_House_2.csv";
            interval 60;
                    };	
				power_factor 1.0;
				power_fraction 1.0;
				current_fraction 0.0;
				impedance_fraction 0.0;
										};							
	
	object ZIPload {
		base_power ZIP1base_power*random.normal(1,.20);		
		object multi_recorder {
            property energy;
            file "GLM_Files/OutPut_of_glm/ZIPs/IEEE13_ZIP_House_2.csv";
            interval 60;
                    };	
		power_factor 1.0;
		power_fraction 1.0;
		current_fraction 0.0;
		impedance_fraction 0.0;
							};
}

// House 3
object house {
	name house3;
	parent trip_meter3;
		floor_area 325;
	//	number_of_doors random.normal(3,1);
	//	number_of_stories random.normal(2,1);/// number of floors
		window_wall_ratio  random.normal(0.07,0.01);
		
	// we did not consider HVAC desing, only we make a ideal case for HVAC
		///		heating_cop_curve DEFAULT;/// make heating_COP as a function
		///		cooling_cop_curve LINEAR;
		power_factor 1.0;  
		power_fraction 1.0;
		current_fraction 0.0;
		impedance_fraction 0.0;
		///	Thermostat design
		/// thermostat_deadband random.normal (2,1); 	/// thermostat_deadband  2; //default and determine defult for --->aux_heat_deadband 2;

		
			/// enumerations             ---------->>>>       in hand  of home onwers
	
	///1. HVAC Configurations 
	///	system_type AIRCONDITIONING; Describe HVAC system, instead of defind indiviualy
		auxiliary_strategy DEADBAND;/////	 system_mode OFF is one of them
		auxiliary_system_type ELECTRIC;
		heating_system_type HEAT_PUMP;
		cooling_system_type HEAT_PUMP;//HEAT_PUMP did not defind according to some part of their website
		fan_type ONE_SPEED;
	///	motor_efficiency VERY_GOOD;
		heating_COP 3;
		cooling_COP 3;//very important
	///	more seting than system_type, these are manufactoring and are not in hand of home owners
			
	///2.	Thermostat Configurations
		
		cooling_setpoint TCool_3.value;
		heating_setpoint THeat_3.value;

		///3. home Configurations
		///thermal_integrity_level VERY_GOOD;
		///glass_type LOW_E_GLASS;
		///window_frame INSULATED;
		///glazing_treatment HIGH_S;
		/// glazing_layers THREE;

object recorder {
		/// enegy of house show only HVAC enery in gridlab D
		/// enery is comultive
		property  hvac_load,energy,heating_setpoint,cooling_setpoint,mass_temperature, air_temperature,outdoor_temperature,system_mode,thermostat_deadband,aux_heat_deadband,floor_area,number_of_doors,number_of_stories,window_wall_ratio, heating_COP, cooling_COP,aux_heat_temperature_lockout;
		file "GLM_Files/OutPut_of_glm/HVACs/IEEE13_HVAC_House_3.csv";
		//IEEE13_House_3_HVAC 
			interval 60;
							}; 

	object waterheater {
		location INSIDE;
				water_demand waterdemand2*random.normal(1,.2);
		object multi_recorder {
            property energy;
            file "GLM_Files/OutPut_of_glm/WaterHeaterS/IEEE13_waterheater_House_3.csv";
            interval 60;
                    };	
				power_factor 1.0;
				power_fraction 1.0;
				current_fraction 0.0;
				impedance_fraction 0.0;
										};							
	object ZIPload {
		base_power ZIP1base_power*random.normal(1,.30);		
		object multi_recorder {
            property energy;
            file "GLM_Files/OutPut_of_glm/ZIPs/IEEE13_ZIP_House_3.csv";
            interval 60;
                    };	
		power_factor 1.0;
		power_fraction 1.0;
		current_fraction 0.0;
		impedance_fraction 0.0;
							};
}

// House 4
object house {
	name house4;
	parent trip_meter4;
	floor_area 450;
	//	number_of_doors random.normal(3,1);
	//	number_of_stories random.normal(2,1);/// number of floors
		window_wall_ratio  random.normal(0.07,0.01);
		
	// we did not consider HVAC desing, only we make a ideal case for HVAC
		///		heating_cop_curve DEFAULT;/// make heating_COP as a function
		///		cooling_cop_curve LINEAR;
		power_factor 1.0;  
		power_fraction 1.0;
		current_fraction 0.0;
		impedance_fraction 0.0;
		///	Thermostat design
		/// thermostat_deadband random.normal (2,1); 	/// thermostat_deadband  2; //default and determine defult for --->aux_heat_deadband 2;

		
			/// enumerations             ---------->>>>       in hand  of home onwers
	
	///1. HVAC Configurations 
	///	system_type AIRCONDITIONING; Describe HVAC system, instead of defind indiviualy
		auxiliary_strategy DEADBAND;/////	 system_mode OFF is one of them
		auxiliary_system_type ELECTRIC;
		heating_system_type HEAT_PUMP;
		cooling_system_type HEAT_PUMP;//HEAT_PUMP did not defind according to some part of their website
		fan_type ONE_SPEED;
	///	motor_efficiency VERY_GOOD;
		heating_COP 4;
		cooling_COP 4;//very important
	///	more seting than system_type, these are manufactoring and are not in hand of home owners
			
	///2.	Thermostat Configurations
		
		cooling_setpoint TCool_4.value;
		heating_setpoint THeat_4.value;

		///3. home Configurations
		///thermal_integrity_level VERY_GOOD;
		///glass_type LOW_E_GLASS;
		///window_frame INSULATED;
		///glazing_treatment HIGH_S;
		/// glazing_layers THREE;

object recorder {
		/// enegy of house show only HVAC enery in gridlab D
		/// enery is comultive
		property  hvac_load,energy,heating_setpoint,cooling_setpoint,mass_temperature, air_temperature,outdoor_temperature,system_mode,thermostat_deadband,aux_heat_deadband,floor_area,number_of_doors,number_of_stories,window_wall_ratio, heating_COP, cooling_COP,aux_heat_temperature_lockout;
		file "GLM_Files/OutPut_of_glm/HVACs/IEEE13_HVAC_House_4.csv";
		//IEEE13_House_4_HVAC 
			interval 60;
							}; 
							
		object waterheater {
		location INSIDE;
				water_demand waterdemand3*random.normal(1,.3);
						object multi_recorder {
            property energy;
            file "GLM_Files/OutPut_of_glm/WaterHeaterS/IEEE13_waterheater_House_4.csv";
            interval 60;
                    };	
				power_factor 1.0;
				power_fraction 1.0;
				current_fraction 0.0;
				impedance_fraction 0.0;
										};		
							
	object ZIPload {
		base_power ZIP1base_power*random.normal(1,.2);	
		object multi_recorder {
            property energy;
            file "GLM_Files/OutPut_of_glm/ZIPs/IEEE13_ZIP_House_4.csv";
            interval 60;
                    };			
		power_factor 1.0;
		power_fraction 1.0;
		current_fraction 0.0;
		impedance_fraction 0.0;
							};
}

// House 5
object house{
	name house5;
	parent trip_meter5;
	floor_area 950;
	//	number_of_doors random.normal(3,1);
	//	number_of_stories random.normal(2,1);/// number of floors
		window_wall_ratio  random.normal(0.07,0.01);
		
	// we did not consider HVAC desing, only we make a ideal case for HVAC
		///		heating_cop_curve DEFAULT;/// make heating_COP as a function
		///		cooling_cop_curve LINEAR;
		power_factor 1.0;  
		power_fraction 1.0;
		current_fraction 0.0;
		impedance_fraction 0.0;
		///	Thermostat design
		/// thermostat_deadband random.normal (2,1); 	/// thermostat_deadband  2; //default and determine defult for --->aux_heat_deadband 2;

			/// enumerations             ---------->>>>       in hand  of home onwers
	
	///1. HVAC Configurations 
	///	system_type AIRCONDITIONING; Describe HVAC system, instead of defind indiviualy
		auxiliary_strategy DEADBAND;/////	 system_mode OFF is one of them
		auxiliary_system_type ELECTRIC;
		heating_system_type HEAT_PUMP;
		cooling_system_type HEAT_PUMP;//HEAT_PUMP did not defind according to some part of their website
		fan_type ONE_SPEED;
	///	motor_efficiency VERY_GOOD;
		heating_COP 1;
		cooling_COP 1;//very important
	///	cooling_COP random.normal(2,1);//very important
	///	more seting than system_type, these are manufactoring and are not in hand of home owners
			
	///2.	Thermostat Configurations
		
		cooling_setpoint TCool_5.value;
		heating_setpoint THeat_5.value;

		///3. home Configurations
		///thermal_integrity_level VERY_GOOD;
		///glass_type LOW_E_GLASS;
		///window_frame INSULATED;
		///glazing_treatment HIGH_S;
		/// glazing_layers THREE;

object recorder {
		/// enegy of house show only HVAC enery in gridlab D
		/// enery is comultive
		property  hvac_load,energy,heating_setpoint,cooling_setpoint,mass_temperature, air_temperature,outdoor_temperature,system_mode,thermostat_deadband,aux_heat_deadband,floor_area,number_of_doors,number_of_stories,window_wall_ratio, heating_COP, cooling_COP,aux_heat_temperature_lockout;
		file "GLM_Files/OutPut_of_glm/HVACs/IEEE13_HVAC_House_5.csv";
		//IEEE13_House_5_HVAC 
			interval 60;
							}; 
	
	object waterheater {
		location INSIDE;
				water_demand waterdemand3*random.normal(1,.2);
						object multi_recorder {
            property energy;
            file "GLM_Files/OutPut_of_glm/WaterHeaterS/IEEE13_waterheater_House_5.csv";
            interval 60;
                    };		
				power_factor 1.0;
				power_fraction 1.0;
				current_fraction 0.0;
				impedance_fraction 0.0;
										};		
							
	object ZIPload {
		base_power ZIP1base_power*random.normal(1,.25);	
		object multi_recorder {
            property energy;
            file "GLM_Files/OutPut_of_glm/ZIPs/IEEE13_ZIP_House_5.csv";
            interval 60;
                    };				
		power_factor 1.0;
		power_fraction 1.0;
		current_fraction 0.0;
		impedance_fraction 0.0;
							};
}

// House 6
object house{
	name house6;
	parent trip_meter6;
	floor_area 1750;
	//	number_of_doors random.normal(3,1);
	//	number_of_stories random.normal(2,1);/// number of floors
		window_wall_ratio  random.normal(0.07,0.01);
		
	// we did not consider HVAC desing, only we make a ideal case for HVAC
		///		heating_cop_curve DEFAULT;/// make heating_COP as a function
		///		cooling_cop_curve LINEAR;
		power_factor 1.0;  
		power_fraction 1.0;
		current_fraction 0.0;
		impedance_fraction 0.0;
		///	Thermostat design
		/// thermostat_deadband random.normal (2,1); 	/// thermostat_deadband  2; //default and determine defult for --->aux_heat_deadband 2;

		
			/// enumerations             ---------->>>>       in hand  of home onwers
	
	///1. HVAC Configurations 
	///	system_type AIRCONDITIONING; Describe HVAC system, instead of defind indiviualy
		auxiliary_strategy DEADBAND;/////	 system_mode OFF is one of them
		auxiliary_system_type ELECTRIC;
		heating_system_type HEAT_PUMP;
		cooling_system_type HEAT_PUMP;//HEAT_PUMP did not defind according to some part of their website
		fan_type ONE_SPEED;
	///	motor_efficiency VERY_GOOD;
		heating_COP 2;
		cooling_COP 4;//very important
	///	more seting than system_type, these are manufactoring and are not in hand of home owners
			
	///2.	Thermostat Configurations
		
		cooling_setpoint TCool_6.value;
		heating_setpoint THeat_6.value;

		///3. home Configurations
		///thermal_integrity_level VERY_GOOD;
		///glass_type LOW_E_GLASS;
		///window_frame INSULATED;
		///glazing_treatment HIGH_S;
		/// glazing_layers THREE;

object recorder {
		/// enegy of house show only HVAC enery in gridlab D
		/// enery is comultive
		property  hvac_load,energy,heating_setpoint,cooling_setpoint,mass_temperature, air_temperature,outdoor_temperature,system_mode,thermostat_deadband,aux_heat_deadband,floor_area,number_of_doors,number_of_stories,window_wall_ratio, heating_COP, cooling_COP,aux_heat_temperature_lockout;
		file "GLM_Files/OutPut_of_glm/HVACs/IEEE13_HVAC_House_6.csv";
			interval 60;
							}; 
	
	object waterheater {
		location INSIDE;
				water_demand waterdemand1*random.normal(1,.2);
					object multi_recorder {
            property energy;
            file "GLM_Files/OutPut_of_glm/WaterHeaterS/IEEE13_waterheater_House_6.csv";
            interval 60;
                    };	
				power_factor 1.0;
				power_fraction 1.0;
				current_fraction 0.0;
				impedance_fraction 0.0;
										};		
							
	object ZIPload {
		base_power ZIP1base_power*random.normal(1,.30);	
	object multi_recorder {
            property energy;
            file "GLM_Files/OutPut_of_glm/ZIPs/IEEE13_ZIP_House_6.csv";
            interval 60;
                    };			
		power_factor 1.0;
		power_fraction 1.0;
		current_fraction 0.0;
		impedance_fraction 0.0;
							};
}

// House 7
object house{
	name house7;
	parent trip_meter7;
	floor_area 1550;
	//	number_of_doors random.normal(3,1);
	//	number_of_stories random.normal(2,1);/// number of floors
		window_wall_ratio  random.normal(0.07,0.01);
		
	// we did not consider HVAC desing, only we make a ideal case for HVAC
		///		heating_cop_curve DEFAULT;/// make heating_COP as a function
		///		cooling_cop_curve LINEAR;
		power_factor 1.0;  
		power_fraction 1.0;
		current_fraction 0.0;
		impedance_fraction 0.0;
		///	Thermostat design
		/// thermostat_deadband random.normal (2,1); 	/// thermostat_deadband  2; //default and determine defult for --->aux_heat_deadband 2;

		
			/// enumerations             ---------->>>>       in hand  of home onwers
	
	///1. HVAC Configurations 
	///	system_type AIRCONDITIONING; Describe HVAC system, instead of defind indiviualy
		auxiliary_strategy DEADBAND;/////	 system_mode OFF is one of them
		auxiliary_system_type ELECTRIC;
		heating_system_type HEAT_PUMP;
		cooling_system_type HEAT_PUMP;//HEAT_PUMP did not defind according to some part of their website
		fan_type ONE_SPEED;
	///	motor_efficiency VERY_GOOD;
		heating_COP 3;
		cooling_COP 1;//very important
	///	cooling_COP random.normal(2,1);//very important
	///	more seting than system_type, these are manufactoring and are not in hand of home owners
			
	///2.	Thermostat Configurations
		
		cooling_setpoint TCool_7.value;
		heating_setpoint THeat_7.value;

		///3. home Configurations
		///thermal_integrity_level VERY_GOOD;
		///glass_type LOW_E_GLASS;
		///window_frame INSULATED;
		///glazing_treatment HIGH_S;
		/// glazing_layers THREE;

object recorder {
		/// enegy of house show only HVAC enery in gridlab D
		/// enery is comultive
		property  hvac_load,energy,heating_setpoint,cooling_setpoint,mass_temperature, air_temperature,outdoor_temperature,system_mode,thermostat_deadband,aux_heat_deadband,floor_area,number_of_doors,number_of_stories,window_wall_ratio, heating_COP, cooling_COP,aux_heat_temperature_lockout;
		file "GLM_Files/OutPut_of_glm/HVACs/IEEE13_HVAC_House_7.csv";
		//IEEE13_House_7_HVAC 
			interval 60;
							}; 

	object waterheater {
		location INSIDE;
				water_demand waterdemand2*random.normal(1,.2);
					object multi_recorder {
            property energy;
            file "GLM_Files/OutPut_of_glm/WaterHeaterS/IEEE13_waterheater_House_7.csv";
            interval 60;
                    };	
				power_factor 1.0;
				power_fraction 1.0;
				current_fraction 0.0;
				impedance_fraction 0.0;
										};		
							
	object ZIPload {
		base_power ZIP1base_power*random.normal(1,.30);		
			object multi_recorder {
            property energy;
            file "GLM_Files/OutPut_of_glm/ZIPs/IEEE13_ZIP_House_7.csv";
            interval 60;
                    };	
		power_factor 1.0;
		power_fraction 1.0;
		current_fraction 0.0;
		impedance_fraction 0.0;
							};
}

// House 8
object house {
	name house8;
	parent trip_meter8;
	floor_area 1450;
	//	number_of_doors random.normal(3,1);
	//	number_of_stories random.normal(2,1);/// number of floors
		window_wall_ratio  random.normal(0.07,0.01);
		
	// we did not consider HVAC desing, only we make a ideal case for HVAC
		///		heating_cop_curve DEFAULT;/// make heating_COP as a function
		///		cooling_cop_curve LINEAR;
		power_factor 1.0;  
		power_fraction 1.0;
		current_fraction 0.0;
		impedance_fraction 0.0;
		///	Thermostat design
		/// thermostat_deadband random.normal (2,1); 	/// thermostat_deadband  2; //default and determine defult for --->aux_heat_deadband 2;

		
			/// enumerations             ---------->>>>       in hand  of home onwers
	
	///1. HVAC Configurations 
	///	system_type AIRCONDITIONING; Describe HVAC system, instead of defind indiviualy
		auxiliary_strategy DEADBAND;/////	 system_mode OFF is one of them
		auxiliary_system_type ELECTRIC;
		heating_system_type HEAT_PUMP;
		cooling_system_type HEAT_PUMP;//HEAT_PUMP did not defind according to some part of their website
		fan_type ONE_SPEED;
	///	motor_efficiency VERY_GOOD;
		heating_COP 4;
		cooling_COP 4;//very important	///	cooling_COP random.normal(2,1);//very important
	///	more seting than system_type, these are manufactoring and are not in hand of home owners
			
	///2.	Thermostat Configurations
		
		cooling_setpoint TCool_8.value;
		heating_setpoint THeat_8.value;

		///3. home Configurations
		///thermal_integrity_level VERY_GOOD;
		///glass_type LOW_E_GLASS;
		///window_frame INSULATED;
		///glazing_treatment HIGH_S;
		/// glazing_layers THREE;

object recorder {
		/// enegy of house show only HVAC enery in gridlab D
		/// enery is comultive
		property  hvac_load,energy,heating_setpoint,cooling_setpoint,mass_temperature, air_temperature,outdoor_temperature,system_mode,thermostat_deadband,aux_heat_deadband,floor_area,number_of_doors,number_of_stories,window_wall_ratio, heating_COP, cooling_COP,aux_heat_temperature_lockout;
		file "GLM_Files/OutPut_of_glm/HVACs/IEEE13_HVAC_House_8.csv";
		//IEEE13_House_8_HVAC 
			interval 60;
							}; 
		object waterheater {
		location INSIDE;
				water_demand waterdemand2*random.normal(1,.25);
							object multi_recorder {
            property energy;
            file "GLM_Files/OutPut_of_glm/WaterHeaterS/IEEE13_waterheater_House_8.csv";
            interval 60;
                    };	
				power_factor 1.0;
				power_fraction 1.0;
				current_fraction 0.0;
				impedance_fraction 0.0;
										};		
							
	object ZIPload {
		base_power ZIP1base_power*random.normal(1,.2);		
					object multi_recorder {
            property energy;
            file "GLM_Files/OutPut_of_glm/ZIPs/IEEE13_ZIP_House_8.csv";
            interval 60;
                    };	
		power_factor 1.0;
		power_fraction 1.0;
		current_fraction 0.0;
		impedance_fraction 0.0;
							};
}

// House 9
object house {
	name house9;
	parent trip_meter9;
	floor_area 1600;
	//	number_of_doors random.normal(3,1);
	//	number_of_stories random.normal(2,1);/// number of floors
		window_wall_ratio  random.normal(0.07,0.01);
		
	// we did not consider HVAC desing, only we make a ideal case for HVAC
		///		heating_cop_curve DEFAULT;/// make heating_COP as a function
		///		cooling_cop_curve LINEAR;
		power_factor 1.0;  
		power_fraction 1.0;
		current_fraction 0.0;
		impedance_fraction 0.0;
		///	Thermostat design
		/// thermostat_deadband random.normal (2,1); 	/// thermostat_deadband  2; //default and determine defult for --->aux_heat_deadband 2;

		
			/// enumerations             ---------->>>>       in hand  of home onwers
	
	///1. HVAC Configurations 
	///	system_type AIRCONDITIONING; Describe HVAC system, instead of defind indiviualy
		auxiliary_strategy DEADBAND;/////	 system_mode OFF is one of them
		auxiliary_system_type ELECTRIC;
		heating_system_type HEAT_PUMP;
		cooling_system_type HEAT_PUMP;//HEAT_PUMP did not defind according to some part of their website
		fan_type ONE_SPEED;
	///	motor_efficiency VERY_GOOD;
		heating_COP 2;
		cooling_COP 3;//very important
	///	cooling_COP random.normal(2,1);//very important
	///	more seting than system_type, these are manufactoring and are not in hand of home owners
			
	///2.	Thermostat Configurations
		
		cooling_setpoint TCool_9.value;
		heating_setpoint THeat_9.value;

		///3. home Configurations
		///thermal_integrity_level VERY_GOOD;
		///glass_type LOW_E_GLASS;
		///window_frame INSULATED;
		///glazing_treatment HIGH_S;
		/// glazing_layers THREE;

object recorder {
		/// enegy of house show only HVAC enery in gridlab D
		/// enery is comultive
		property  hvac_load,energy,heating_setpoint,cooling_setpoint,mass_temperature, air_temperature,outdoor_temperature,system_mode,thermostat_deadband,aux_heat_deadband,floor_area,number_of_doors,number_of_stories,window_wall_ratio, heating_COP, cooling_COP,aux_heat_temperature_lockout;
		file "GLM_Files/OutPut_of_glm/HVACs/IEEE13_HVAC_House_9.csv";
		//IEEE13_House_9_HVAC 
			interval 60;
							}; 

	
		object waterheater {
		location INSIDE;
				water_demand waterdemand3*random.normal(1,.25);
			object multi_recorder {
            property energy;
            file "GLM_Files/OutPut_of_glm/WaterHeaterS/IEEE13_waterheater_House_9.csv";
            interval 60;
                    };	
				power_factor 1.0;
				power_fraction 1.0;
				current_fraction 0.0;
				impedance_fraction 0.0;
										};		
							
	object ZIPload {
		base_power ZIP1base_power*random.normal(1,.22);	
					object multi_recorder {
            property energy;
            file "GLM_Files/OutPut_of_glm/ZIPs/IEEE13_ZIP_House_9.csv";
            interval 60;
                    };			
		power_factor 1.0;
		power_fraction 1.0;
		current_fraction 0.0;
		impedance_fraction 0.0;
							};
}

// House 10
object house {
	name house10;
	parent trip_meter10;
		floor_area 1900;
	//	number_of_doors random.normal(3,1);
	//	number_of_stories random.normal(2,1);/// number of floors
		window_wall_ratio  random.normal(0.07,0.01);
		
	// we did not consider HVAC desing, only we make a ideal case for HVAC
		///		heating_cop_curve DEFAULT;/// make heating_COP as a function
		///		cooling_cop_curve LINEAR;
		power_factor 1.0;  
		power_fraction 1.0;
		current_fraction 0.0;
		impedance_fraction 0.0;
		///	Thermostat design
		/// thermostat_deadband random.normal (2,1); 	/// thermostat_deadband  2; //default and determine defult for --->aux_heat_deadband 2;

			/// enumerations             ---------->>>>       in hand  of home onwers
	
	///1. HVAC Configurations 
	///	system_type AIRCONDITIONING; Describe HVAC system, instead of defind indiviualy
		auxiliary_strategy DEADBAND;/////	 system_mode OFF is one of them
		auxiliary_system_type ELECTRIC;
		heating_system_type HEAT_PUMP;
		cooling_system_type HEAT_PUMP;//HEAT_PUMP did not defind according to some part of their website
		fan_type ONE_SPEED;
	///	motor_efficiency VERY_GOOD;
		heating_COP 2;
		cooling_COP 2;//very important
	///	cooling_COP random.normal(2,1);//very important
	///	more seting than system_type, these are manufactoring and are not in hand of home owners
			
	///2.	Thermostat Configurations
		
		cooling_setpoint TCool_10.value;
		heating_setpoint THeat_10.value;

		///3. home Configurations
		///thermal_integrity_level VERY_GOOD;
		///glass_type LOW_E_GLASS;
		///window_frame INSULATED;
		///glazing_treatment HIGH_S;
		/// glazing_layers THREE;

object recorder {
		/// enegy of house show only HVAC enery in gridlab D
		/// enery is comultive
		property  hvac_load,energy,heating_setpoint,cooling_setpoint,mass_temperature, air_temperature,outdoor_temperature,system_mode,thermostat_deadband,aux_heat_deadband,floor_area,number_of_doors,number_of_stories,window_wall_ratio, heating_COP, cooling_COP,aux_heat_temperature_lockout;
		file "GLM_Files/OutPut_of_glm/HVACs/IEEE13_HVAC_House_10.csv";
		//IEEE13_House_10_HVAC 
			interval 60;
							}; 
							
	object waterheater {
		location INSIDE;
				water_demand waterdemand3*random.normal(1,.2);
			object multi_recorder {
            property energy;
            file "GLM_Files/OutPut_of_glm/WaterHeaterS/IEEE13_waterheater_House_10.csv";
            interval 60;
                    };	
				power_factor 1.0;
				power_fraction 1.0;
				current_fraction 0.0;
				impedance_fraction 0.0;
										};		
							
	object ZIPload {
		base_power ZIP1base_power*random.normal(1,.25);
					object multi_recorder {
            property energy;
            file "GLM_Files/OutPut_of_glm/ZIPs/IEEE13_ZIP_House_10.csv";
            interval 60;
                    };			
		power_factor 1.0;
		power_fraction 1.0;
		current_fraction 0.0;
		impedance_fraction 0.0;
							};
							
}

// House 11
object house {
	name house11;
	parent trip_meter11;
		floor_area 1000;
	//	number_of_doors random.normal(3,1);
	//	number_of_stories random.normal(2,1);/// number of floors
		window_wall_ratio  random.normal(0.07,0.01);
		
		
	// we did not consider HVAC desing, only we make a ideal case for HVAC
		///		heating_cop_curve DEFAULT;/// make heating_COP as a function
		///		cooling_cop_curve LINEAR;
		power_factor 1.0;  
		power_fraction 1.0;
		current_fraction 0.0;
		impedance_fraction 0.0;
		///	Thermostat design
		/// thermostat_deadband random.normal (2,1); 	/// thermostat_deadband  2; //default and determine defult for --->aux_heat_deadband 2;

		
			/// enumerations             ---------->>>>       in hand  of home onwers
	
	///1. HVAC Configurations 
	///	system_type AIRCONDITIONING; Describe HVAC system, instead of defind indiviualy
		auxiliary_strategy DEADBAND;/////	 system_mode OFF is one of them
		auxiliary_system_type ELECTRIC;
		heating_system_type HEAT_PUMP;
		cooling_system_type HEAT_PUMP;//HEAT_PUMP did not defind according to some part of their website
		fan_type ONE_SPEED;
	///	motor_efficiency VERY_GOOD;
		heating_COP 3;
		cooling_COP 3;//very important
	///	more seting than system_type, these are manufactoring and are not in hand of home owners
			
	///2.	Thermostat Configurations
		
		cooling_setpoint TCool_11.value;
		heating_setpoint THeat_11.value;

		///3. home Configurations
		///thermal_integrity_level VERY_GOOD;
		///glass_type LOW_E_GLASS;
		///window_frame INSULATED;
		///glazing_treatment HIGH_S;
		/// glazing_layers THREE;

object recorder {
		/// enegy of house show only HVAC enery in gridlab D
		/// enery is comultive
		property  hvac_load,energy,heating_setpoint,cooling_setpoint,mass_temperature, air_temperature,outdoor_temperature,system_mode,thermostat_deadband,aux_heat_deadband,floor_area,number_of_doors,number_of_stories,window_wall_ratio, heating_COP, cooling_COP,aux_heat_temperature_lockout;
		file "GLM_Files/OutPut_of_glm/HVACs/IEEE13_HVAC_House_11.csv";
		//IEEE13_House_11_HVAC 
			interval 60;
							}; 

	object waterheater {
		location INSIDE;
	water_demand waterdemand2*random.normal(1,.2);
						object multi_recorder {
            property energy;
            file "GLM_Files/OutPut_of_glm/WaterHeaterS/IEEE13_waterheater_House_11.csv";
            interval 60;
                    };		
				power_factor 1.0;
				power_fraction 1.0;
				current_fraction 0.0;
				impedance_fraction 0.0;
										};		
							
	object ZIPload {
		base_power ZIP1base_power*random.normal(1,.2);
					object multi_recorder {
            property energy;
            file "GLM_Files/OutPut_of_glm/ZIPs/IEEE13_ZIP_House_11.csv";
            interval 60;
                    };				
		power_factor 1.0;
		power_fraction 1.0;
		current_fraction 0.0;
		impedance_fraction 0.0;
							};
}

// House 12
object house {
	name house12;
	parent trip_meter12;
	floor_area 2022;
	//	number_of_doors random.normal(3,1);
	//	number_of_stories random.normal(2,1);/// number of floors
...